231
Lattice="23.5452 0.0 0.0 0.0 23.5452 0.0 0.0 0.0 23.5452" Properties=species:S:1:pos:R:3:Z:I:1 pbc="F F F"
Pt       1.96210000       9.81050000      11.77260000       78 
Pt       1.96210000      11.77260000       9.81050000       78 
Pt       0.00000000      11.77260000      11.77260000       78 
Pt       1.96210000      11.77260000      13.73470000       78 
Pt       1.96210000      13.73470000      11.77260000       78 
Pt       5.88630000       5.88630000      11.77260000       78 
Pt       3.92420000       9.81050000       9.81050000       78 
Pt       5.88630000       7.84840000       9.81050000       78 
Pt       5.88630000       9.81050000       7.84840000       78 
Pt       3.92420000       7.84840000      11.77260000       78 
Pt       3.92420000       9.81050000      13.73470000       78 
Pt       5.88630000       7.84840000      13.73470000       78 
Pt       5.88630000       9.81050000      11.77260000       78 
Pt       5.88630000       9.81050000      15.69680000       78 
Pt       5.88630000      11.77260000       5.88630000       78 
Pt       3.92420000      11.77260000       7.84840000       78 
Pt       3.92420000      13.73470000       9.81050000       78 
Pt       5.88630000      11.77260000       9.81050000       78 
Pt       5.88630000      13.73470000       7.84840000       78 
Pt       3.92420000      11.77260000      11.77260000       78 
Pt       3.92420000      13.73470000      13.73470000       78 
Pt       5.88630000      11.77260000      13.73470000       78 
Pt       5.88630000      13.73470000      11.77260000       78 
Pt       3.92420000      11.77260000      15.69680000       78 
Pt       5.88630000      11.77260000      17.65890000       78 
Pt       5.88630000      13.73470000      15.69680000       78 
Pt       5.88630000      15.69680000       9.81050000       78 
Pt       3.92420000      15.69680000      11.77260000       78 
Pt       5.88630000      15.69680000      13.73470000       78 
Pt       5.88630000      17.65890000      11.77260000       78 
Pt       9.81050000       1.96210000      11.77260000       78 
Pt       7.84840000       5.88630000       9.81050000       78 
Pt       9.81050000       3.92420000       9.81050000       78 
Pt       9.81050000       5.88630000       7.84840000       78 
Pt       7.84840000       3.92420000      11.77260000       78 
Pt       7.84840000       5.88630000      13.73470000       78 
Pt       9.81050000       3.92420000      13.73470000       78 
Pt       9.81050000       5.88630000      11.77260000       78 
Pt       9.81050000       5.88630000      15.69680000       78 
Pt       7.84840000       9.81050000       5.88630000       78 
Pt       9.81050000       7.84840000       5.88630000       78 
Pt       9.81050000       9.81050000       3.92420000       78 
Pt       7.84840000       7.84840000       7.84840000       78 
Pt       7.84840000       9.81050000       9.81050000       78 
Pt       9.81050000       7.84840000       9.81050000       78 
Pt       9.81050000       9.81050000       7.84840000       78 
Pt       7.84840000       7.84840000      11.77260000       78 
Pt       7.84840000       9.81050000      13.73470000       78 
Pt       9.81050000       7.84840000      13.73470000       78 
Pt       9.81050000       9.81050000      11.77260000       78 
Pt       7.84840000       7.84840000      15.69680000       78 
Pt       7.84840000       9.81050000      17.65890000       78 
Pt       9.81050000       7.84840000      17.65890000       78 
Pt       9.81050000       9.81050000      15.69680000       78 
Pt       9.81050000       9.81050000      19.62100000       78 
Pt       9.81050000      11.77260000       1.96210000       78 
Pt       7.84840000      11.77260000       3.92420000       78 
Pt       7.84840000      13.73470000       5.88630000       78 
Pt       9.81050000      11.77260000       5.88630000       78 
Pt       9.81050000      13.73470000       3.92420000       78 
Pt       7.84840000      11.77260000       7.84840000       78 
Pt       7.84840000      13.73470000       9.81050000       78 
Pt       9.81050000      11.77260000       9.81050000       78 
Pt       9.81050000      13.73470000       7.84840000       78 
Pt       7.84840000      11.77260000      11.77260000       78 
Pt       7.84840000      13.73470000      13.73470000       78 
Pt       9.81050000      11.77260000      13.73470000       78 
Pt       9.81050000      13.73470000      11.77260000       78 
Pt       7.84840000      11.77260000      15.69680000       78 
Pt       7.84840000      13.73470000      17.65890000       78 
Pt       9.81050000      11.77260000      17.65890000       78 
Pt       9.81050000      13.73470000      15.69680000       78 
Pt       7.84840000      11.77260000      19.62100000       78 
Pt       9.81050000      11.77260000      21.58310000       78 
Pt       9.81050000      13.73470000      19.62100000       78 
Pt       9.81050000      15.69680000       5.88630000       78 
Pt       7.84840000      15.69680000       7.84840000       78 
Pt       7.84840000      17.65890000       9.81050000       78 
Pt       9.81050000      15.69680000       9.81050000       78 
Pt       9.81050000      17.65890000       7.84840000       78 
Pt       7.84840000      15.69680000      11.77260000       78 
Pt       7.84840000      17.65890000      13.73470000       78 
Pt       9.81050000      15.69680000      13.73470000       78 
Pt       9.81050000      17.65890000      11.77260000       78 
Pt       7.84840000      15.69680000      15.69680000       78 
Pt       9.81050000      15.69680000      17.65890000       78 
Pt       9.81050000      17.65890000      15.69680000       78 
Pt       9.81050000      19.62100000       9.81050000       78 
Pt       7.84840000      19.62100000      11.77260000       78 
Pt       9.81050000      19.62100000      13.73470000       78 
Pt       9.81050000      21.58310000      11.77260000       78 
Pt      11.77260000       1.96210000       9.81050000       78 
Pt      11.77260000       0.00000000      11.77260000       78 
Pt      11.77260000       1.96210000      13.73470000       78 
Pt      13.73470000       1.96210000      11.77260000       78 
Pt      11.77260000       5.88630000       5.88630000       78 
Pt      11.77260000       3.92420000       7.84840000       78 
Pt      11.77260000       5.88630000       9.81050000       78 
Pt      13.73470000       3.92420000       9.81050000       78 
Pt      13.73470000       5.88630000       7.84840000       78 
Pt      11.77260000       3.92420000      11.77260000       78 
Pt      11.77260000       5.88630000      13.73470000       78 
Pt      13.73470000       3.92420000      13.73470000       78 
Pt      13.73470000       5.88630000      11.77260000       78 
Pt      11.77260000       3.92420000      15.69680000       78 
Pt      11.77260000       5.88630000      17.65890000       78 
Pt      13.73470000       5.88630000      15.69680000       78 
Pt      11.77260000       9.81050000       1.96210000       78 
Pt      11.77260000       7.84840000       3.92420000       78 
Pt      11.77260000       9.81050000       5.88630000       78 
Pt      13.73470000       7.84840000       5.88630000       78 
Pt      13.73470000       9.81050000       3.92420000       78 
Pt      11.77260000       7.84840000       7.84840000       78 
Pt      11.77260000       9.81050000       9.81050000       78 
Pt      13.73470000       7.84840000       9.81050000       78 
Pt      13.73470000       9.81050000       7.84840000       78 
Pt      11.77260000       7.84840000      11.77260000       78 
Pt      11.77260000       9.81050000      13.73470000       78 
Pt      13.73470000       7.84840000      13.73470000       78 
Pt      13.73470000       9.81050000      11.77260000       78 
Pt      11.77260000       7.84840000      15.69680000       78 
Pt      11.77260000       9.81050000      17.65890000       78 
Pt      13.73470000       7.84840000      17.65890000       78 
Pt      13.73470000       9.81050000      15.69680000       78 
Pt      11.77260000       7.84840000      19.62100000       78 
Pt      11.77260000       9.81050000      21.58310000       78 
Pt      13.73470000       9.81050000      19.62100000       78 
Pt      11.77260000      11.77260000       0.00000000       78 
Pt      11.77260000      13.73470000       1.96210000       78 
Pt      13.73470000      11.77260000       1.96210000       78 
Pt      11.77260000      11.77260000       3.92420000       78 
Pt      11.77260000      13.73470000       5.88630000       78 
Pt      13.73470000      11.77260000       5.88630000       78 
Pt      13.73470000      13.73470000       3.92420000       78 
Pt      11.77260000      11.77260000       7.84840000       78 
Pt      11.77260000      13.73470000       9.81050000       78 
Pt      13.73470000      11.77260000       9.81050000       78 
Pt      13.73470000      13.73470000       7.84840000       78 
Pt      11.77260000      11.77260000      11.77260000       78 
Pt      11.77260000      13.73470000      13.73470000       78 
Pt      13.73470000      11.77260000      13.73470000       78 
Pt      13.73470000      13.73470000      11.77260000       78 
Pt      11.77260000      11.77260000      15.69680000       78 
Pt      11.77260000      13.73470000      17.65890000       78 
Pt      13.73470000      11.77260000      17.65890000       78 
Pt      13.73470000      13.73470000      15.69680000       78 
Pt      11.77260000      11.77260000      19.62100000       78 
Pt      11.77260000      13.73470000      21.58310000       78 
Pt      13.73470000      11.77260000      21.58310000       78 
Pt      13.73470000      13.73470000      19.62100000       78 
Pt      11.77260000      11.77260000      23.54520000       78 
Pt      11.77260000      15.69680000       3.92420000       78 
Pt      11.77260000      17.65890000       5.88630000       78 
Pt      13.73470000      15.69680000       5.88630000       78 
Pt      11.77260000      15.69680000       7.84840000       78 
Pt      11.77260000      17.65890000       9.81050000       78 
Pt      13.73470000      15.69680000       9.81050000       78 
Pt      13.73470000      17.65890000       7.84840000       78 
Pt      11.77260000      15.69680000      11.77260000       78 
Pt      11.77260000      17.65890000      13.73470000       78 
Pt      13.73470000      15.69680000      13.73470000       78 
Pt      13.73470000      17.65890000      11.77260000       78 
Pt      11.77260000      15.69680000      15.69680000       78 
Pt      11.77260000      17.65890000      17.65890000       78 
Pt      13.73470000      15.69680000      17.65890000       78 
Pt      13.73470000      17.65890000      15.69680000       78 
Pt      11.77260000      15.69680000      19.62100000       78 
Pt      11.77260000      19.62100000       7.84840000       78 
Pt      11.77260000      21.58310000       9.81050000       78 
Pt      13.73470000      19.62100000       9.81050000       78 
Pt      11.77260000      19.62100000      11.77260000       78 
Pt      11.77260000      21.58310000      13.73470000       78 
Pt      13.73470000      19.62100000      13.73470000       78 
Pt      13.73470000      21.58310000      11.77260000       78 
Pt      11.77260000      19.62100000      15.69680000       78 
Pt      11.77260000      23.54520000      11.77260000       78 
Pt      15.69680000       5.88630000       9.81050000       78 
Pt      15.69680000       3.92420000      11.77260000       78 
Pt      15.69680000       5.88630000      13.73470000       78 
Pt      17.65890000       5.88630000      11.77260000       78 
Pt      15.69680000       9.81050000       5.88630000       78 
Pt      15.69680000       7.84840000       7.84840000       78 
Pt      15.69680000       9.81050000       9.81050000       78 
Pt      17.65890000       7.84840000       9.81050000       78 
Pt      17.65890000       9.81050000       7.84840000       78 
Pt      15.69680000       7.84840000      11.77260000       78 
Pt      15.69680000       9.81050000      13.73470000       78 
Pt      17.65890000       7.84840000      13.73470000       78 
Pt      17.65890000       9.81050000      11.77260000       78 
Pt      15.69680000       7.84840000      15.69680000       78 
Pt      15.69680000       9.81050000      17.65890000       78 
Pt      17.65890000       9.81050000      15.69680000       78 
Pt      15.69680000      11.77260000       3.92420000       78 
Pt      15.69680000      13.73470000       5.88630000       78 
Pt      17.65890000      11.77260000       5.88630000       78 
Pt      15.69680000      11.77260000       7.84840000       78 
Pt      15.69680000      13.73470000       9.81050000       78 
Pt      17.65890000      11.77260000       9.81050000       78 
Pt      17.65890000      13.73470000       7.84840000       78 
Pt      15.69680000      11.77260000      11.77260000       78 
Pt      15.69680000      13.73470000      13.73470000       78 
Pt      17.65890000      11.77260000      13.73470000       78 
Pt      17.65890000      13.73470000      11.77260000       78 
Pt      15.69680000      11.77260000      15.69680000       78 
Pt      15.69680000      13.73470000      17.65890000       78 
Pt      17.65890000      11.77260000      17.65890000       78 
Pt      17.65890000      13.73470000      15.69680000       78 
Pt      15.69680000      11.77260000      19.62100000       78 
Pt      15.69680000      15.69680000       7.84840000       78 
Pt      15.69680000      17.65890000       9.81050000       78 
Pt      17.65890000      15.69680000       9.81050000       78 
Pt      15.69680000      15.69680000      11.77260000       78 
Pt      15.69680000      17.65890000      13.73470000       78 
Pt      17.65890000      15.69680000      13.73470000       78 
Pt      17.65890000      17.65890000      11.77260000       78 
Pt      15.69680000      15.69680000      15.69680000       78 
Pt      15.69680000      19.62100000      11.77260000       78 
Pt      19.62100000       9.81050000       9.81050000       78 
Pt      19.62100000       7.84840000      11.77260000       78 
Pt      19.62100000       9.81050000      13.73470000       78 
Pt      21.58310000       9.81050000      11.77260000       78 
Pt      19.62100000      11.77260000       7.84840000       78 
Pt      19.62100000      13.73470000       9.81050000       78 
Pt      21.58310000      11.77260000       9.81050000       78 
Pt      19.62100000      11.77260000      11.77260000       78 
Pt      19.62100000      13.73470000      13.73470000       78 
Pt      21.58310000      11.77260000      13.73470000       78 
Pt      21.58310000      13.73470000      11.77260000       78 
Pt      19.62100000      11.77260000      15.69680000       78 
Pt      19.62100000      15.69680000      11.77260000       78 
Pt      23.54520000      11.77260000      11.77260000       78 
4_1_4_4 6
7_2_8_4 24
7_2_10_7 36
9_3_13_5 24
9_3_14_7 48
9_3_15_9 8
12_6_12_4 6
12_6_18_7 36
12_6_21_9 24
12_6_24_12 19
