249
Lattice="15.6968 0.0 0.0 0.0 15.6968 0.0 0.0 0.0 15.6968" Properties=species:S:1:pos:R:3:Z:I:1 pbc="F F F"
Pt       1.96210000       1.96210000       3.92420000       78 
Pt       1.96210000       1.96210000       7.84840000       78 
Pt       1.96210000       1.96210000      11.77260000       78 
Pt       1.96210000       3.92420000       1.96210000       78 
Pt       0.00000000       3.92420000       3.92420000       78 
Pt       0.00000000       5.88630000       5.88630000       78 
Pt       1.96210000       3.92420000       5.88630000       78 
Pt       1.96210000       5.88630000       3.92420000       78 
Pt       0.00000000       3.92420000       7.84840000       78 
Pt       0.00000000       5.88630000       9.81050000       78 
Pt       1.96210000       3.92420000       9.81050000       78 
Pt       1.96210000       5.88630000       7.84840000       78 
Pt       0.00000000       3.92420000      11.77260000       78 
Pt       1.96210000       3.92420000      13.73470000       78 
Pt       1.96210000       5.88630000      11.77260000       78 
Pt       1.96210000       7.84840000       1.96210000       78 
Pt       0.00000000       7.84840000       3.92420000       78 
Pt       0.00000000       9.81050000       5.88630000       78 
Pt       1.96210000       7.84840000       5.88630000       78 
Pt       1.96210000       9.81050000       3.92420000       78 
Pt       0.00000000       7.84840000       7.84840000       78 
Pt       0.00000000       9.81050000       9.81050000       78 
Pt       1.96210000       7.84840000       9.81050000       78 
Pt       1.96210000       9.81050000       7.84840000       78 
Pt       0.00000000       7.84840000      11.77260000       78 
Pt       1.96210000       7.84840000      13.73470000       78 
Pt       1.96210000       9.81050000      11.77260000       78 
Pt       1.96210000      11.77260000       1.96210000       78 
Pt       0.00000000      11.77260000       3.92420000       78 
Pt       1.96210000      11.77260000       5.88630000       78 
Pt       1.96210000      13.73470000       3.92420000       78 
Pt       0.00000000      11.77260000       7.84840000       78 
Pt       1.96210000      11.77260000       9.81050000       78 
Pt       1.96210000      13.73470000       7.84840000       78 
Pt       0.00000000      11.77260000      11.77260000       78 
Pt       1.96210000      11.77260000      13.73470000       78 
Pt       1.96210000      13.73470000      11.77260000       78 
Pt       3.92420000       1.96210000       1.96210000       78 
Pt       3.92420000       0.00000000       3.92420000       78 
Pt       3.92420000       1.96210000       5.88630000       78 
Pt       5.88630000       0.00000000       5.88630000       78 
Pt       5.88630000       1.96210000       3.92420000       78 
Pt       3.92420000       0.00000000       7.84840000       78 
Pt       3.92420000       1.96210000       9.81050000       78 
Pt       5.88630000       0.00000000       9.81050000       78 
Pt       5.88630000       1.96210000       7.84840000       78 
Pt       3.92420000       0.00000000      11.77260000       78 
Pt       3.92420000       1.96210000      13.73470000       78 
Pt       5.88630000       1.96210000      11.77260000       78 
Pt       3.92420000       3.92420000       0.00000000       78 
Pt       3.92420000       5.88630000       1.96210000       78 
Pt       5.88630000       3.92420000       1.96210000       78 
Pt       5.88630000       5.88630000       0.00000000       78 
Pt       3.92420000       3.92420000       3.92420000       78 
Pt       3.92420000       5.88630000       5.88630000       78 
Pt       5.88630000       3.92420000       5.88630000       78 
Pt       5.88630000       5.88630000       3.92420000       78 
Pt       3.92420000       3.92420000       7.84840000       78 
Pt       3.92420000       5.88630000       9.81050000       78 
Pt       5.88630000       3.92420000       9.81050000       78 
Pt       5.88630000       5.88630000       7.84840000       78 
Pt       3.92420000       3.92420000      11.77260000       78 
Pt       3.92420000       5.88630000      13.73470000       78 
Pt       5.88630000       3.92420000      13.73470000       78 
Pt       5.88630000       5.88630000      11.77260000       78 
Pt       3.92420000       3.92420000      15.69680000       78 
Pt       5.88630000       5.88630000      15.69680000       78 
Pt       3.92420000       7.84840000       0.00000000       78 
Pt       3.92420000       9.81050000       1.96210000       78 
Pt       5.88630000       7.84840000       1.96210000       78 
Pt       5.88630000       9.81050000       0.00000000       78 
Pt       3.92420000       7.84840000       3.92420000       78 
Pt       3.92420000       9.81050000       5.88630000       78 
Pt       5.88630000       7.84840000       5.88630000       78 
Pt       5.88630000       9.81050000       3.92420000       78 
Pt       3.92420000       7.84840000       7.84840000       78 
Pt       3.92420000       9.81050000       9.81050000       78 
Pt       5.88630000       7.84840000       9.81050000       78 
Pt       5.88630000       9.81050000       7.84840000       78 
Pt       3.92420000       7.84840000      11.77260000       78 
Pt       3.92420000       9.81050000      13.73470000       78 
Pt       5.88630000       7.84840000      13.73470000       78 
Pt       5.88630000       9.81050000      11.77260000       78 
Pt       3.92420000       7.84840000      15.69680000       78 
Pt       5.88630000       9.81050000      15.69680000       78 
Pt       3.92420000      11.77260000       0.00000000       78 
Pt       3.92420000      13.73470000       1.96210000       78 
Pt       5.88630000      11.77260000       1.96210000       78 
Pt       3.92420000      11.77260000       3.92420000       78 
Pt       3.92420000      13.73470000       5.88630000       78 
Pt       5.88630000      11.77260000       5.88630000       78 
Pt       5.88630000      13.73470000       3.92420000       78 
Pt       3.92420000      11.77260000       7.84840000       78 
Pt       3.92420000      13.73470000       9.81050000       78 
Pt       5.88630000      11.77260000       9.81050000       78 
Pt       5.88630000      13.73470000       7.84840000       78 
Pt       3.92420000      11.77260000      11.77260000       78 
Pt       3.92420000      13.73470000      13.73470000       78 
Pt       5.88630000      11.77260000      13.73470000       78 
Pt       5.88630000      13.73470000      11.77260000       78 
Pt       3.92420000      11.77260000      15.69680000       78 
Pt       3.92420000      15.69680000       3.92420000       78 
Pt       5.88630000      15.69680000       5.88630000       78 
Pt       3.92420000      15.69680000       7.84840000       78 
Pt       5.88630000      15.69680000       9.81050000       78 
Pt       3.92420000      15.69680000      11.77260000       78 
Pt       7.84840000       1.96210000       1.96210000       78 
Pt       7.84840000       0.00000000       3.92420000       78 
Pt       7.84840000       1.96210000       5.88630000       78 
Pt       9.81050000       0.00000000       5.88630000       78 
Pt       9.81050000       1.96210000       3.92420000       78 
Pt       7.84840000       0.00000000       7.84840000       78 
Pt       7.84840000       1.96210000       9.81050000       78 
Pt       9.81050000       0.00000000       9.81050000       78 
Pt       9.81050000       1.96210000       7.84840000       78 
Pt       7.84840000       0.00000000      11.77260000       78 
Pt       7.84840000       1.96210000      13.73470000       78 
Pt       9.81050000       1.96210000      11.77260000       78 
Pt       7.84840000       3.92420000       0.00000000       78 
Pt       7.84840000       5.88630000       1.96210000       78 
Pt       9.81050000       3.92420000       1.96210000       78 
Pt       9.81050000       5.88630000       0.00000000       78 
Pt       7.84840000       3.92420000       3.92420000       78 
Pt       7.84840000       5.88630000       5.88630000       78 
Pt       9.81050000       3.92420000       5.88630000       78 
Pt       9.81050000       5.88630000       3.92420000       78 
Pt       7.84840000       3.92420000       7.84840000       78 
Pt       7.84840000       5.88630000       9.81050000       78 
Pt       9.81050000       3.92420000       9.81050000       78 
Pt       9.81050000       5.88630000       7.84840000       78 
Pt       7.84840000       3.92420000      11.77260000       78 
Pt       7.84840000       5.88630000      13.73470000       78 
Pt       9.81050000       3.92420000      13.73470000       78 
Pt       9.81050000       5.88630000      11.77260000       78 
Pt       7.84840000       3.92420000      15.69680000       78 
Pt       9.81050000       5.88630000      15.69680000       78 
Pt       7.84840000       7.84840000       0.00000000       78 
Pt       7.84840000       9.81050000       1.96210000       78 
Pt       9.81050000       7.84840000       1.96210000       78 
Pt       9.81050000       9.81050000       0.00000000       78 
Pt       7.84840000       7.84840000       3.92420000       78 
Pt       7.84840000       9.81050000       5.88630000       78 
Pt       9.81050000       7.84840000       5.88630000       78 
Pt       9.81050000       9.81050000       3.92420000       78 
Pt       7.84840000       7.84840000       7.84840000       78 
Pt       7.84840000       9.81050000       9.81050000       78 
Pt       9.81050000       7.84840000       9.81050000       78 
Pt       9.81050000       9.81050000       7.84840000       78 
Pt       7.84840000       7.84840000      11.77260000       78 
Pt       7.84840000       9.81050000      13.73470000       78 
Pt       9.81050000       7.84840000      13.73470000       78 
Pt       9.81050000       9.81050000      11.77260000       78 
Pt       7.84840000       7.84840000      15.69680000       78 
Pt       9.81050000       9.81050000      15.69680000       78 
Pt       7.84840000      11.77260000       0.00000000       78 
Pt       7.84840000      13.73470000       1.96210000       78 
Pt       9.81050000      11.77260000       1.96210000       78 
Pt       7.84840000      11.77260000       3.92420000       78 
Pt       7.84840000      13.73470000       5.88630000       78 
Pt       9.81050000      11.77260000       5.88630000       78 
Pt       9.81050000      13.73470000       3.92420000       78 
Pt       7.84840000      11.77260000       7.84840000       78 
Pt       7.84840000      13.73470000       9.81050000       78 
Pt       9.81050000      11.77260000       9.81050000       78 
Pt       9.81050000      13.73470000       7.84840000       78 
Pt       7.84840000      11.77260000      11.77260000       78 
Pt       7.84840000      13.73470000      13.73470000       78 
Pt       9.81050000      11.77260000      13.73470000       78 
Pt       9.81050000      13.73470000      11.77260000       78 
Pt       7.84840000      11.77260000      15.69680000       78 
Pt       7.84840000      15.69680000       3.92420000       78 
Pt       9.81050000      15.69680000       5.88630000       78 
Pt       7.84840000      15.69680000       7.84840000       78 
Pt       9.81050000      15.69680000       9.81050000       78 
Pt       7.84840000      15.69680000      11.77260000       78 
Pt      11.77260000       1.96210000       1.96210000       78 
Pt      11.77260000       0.00000000       3.92420000       78 
Pt      11.77260000       1.96210000       5.88630000       78 
Pt      13.73470000       1.96210000       3.92420000       78 
Pt      11.77260000       0.00000000       7.84840000       78 
Pt      11.77260000       1.96210000       9.81050000       78 
Pt      13.73470000       1.96210000       7.84840000       78 
Pt      11.77260000       0.00000000      11.77260000       78 
Pt      11.77260000       1.96210000      13.73470000       78 
Pt      13.73470000       1.96210000      11.77260000       78 
Pt      11.77260000       3.92420000       0.00000000       78 
Pt      11.77260000       5.88630000       1.96210000       78 
Pt      13.73470000       3.92420000       1.96210000       78 
Pt      11.77260000       3.92420000       3.92420000       78 
Pt      11.77260000       5.88630000       5.88630000       78 
Pt      13.73470000       3.92420000       5.88630000       78 
Pt      13.73470000       5.88630000       3.92420000       78 
Pt      11.77260000       3.92420000       7.84840000       78 
Pt      11.77260000       5.88630000       9.81050000       78 
Pt      13.73470000       3.92420000       9.81050000       78 
Pt      13.73470000       5.88630000       7.84840000       78 
Pt      11.77260000       3.92420000      11.77260000       78 
Pt      11.77260000       5.88630000      13.73470000       78 
Pt      13.73470000       3.92420000      13.73470000       78 
Pt      13.73470000       5.88630000      11.77260000       78 
Pt      11.77260000       3.92420000      15.69680000       78 
Pt      11.77260000       7.84840000       0.00000000       78 
Pt      11.77260000       9.81050000       1.96210000       78 
Pt      13.73470000       7.84840000       1.96210000       78 
Pt      11.77260000       7.84840000       3.92420000       78 
Pt      11.77260000       9.81050000       5.88630000       78 
Pt      13.73470000       7.84840000       5.88630000       78 
Pt      13.73470000       9.81050000       3.92420000       78 
Pt      11.77260000       7.84840000       7.84840000       78 
Pt      11.77260000       9.81050000       9.81050000       78 
Pt      13.73470000       7.84840000       9.81050000       78 
Pt      13.73470000       9.81050000       7.84840000       78 
Pt      11.77260000       7.84840000      11.77260000       78 
Pt      11.77260000       9.81050000      13.73470000       78 
Pt      13.73470000       7.84840000      13.73470000       78 
Pt      13.73470000       9.81050000      11.77260000       78 
Pt      11.77260000       7.84840000      15.69680000       78 
Pt      11.77260000      11.77260000       0.00000000       78 
Pt      11.77260000      13.73470000       1.96210000       78 
Pt      13.73470000      11.77260000       1.96210000       78 
Pt      11.77260000      11.77260000       3.92420000       78 
Pt      11.77260000      13.73470000       5.88630000       78 
Pt      13.73470000      11.77260000       5.88630000       78 
Pt      13.73470000      13.73470000       3.92420000       78 
Pt      11.77260000      11.77260000       7.84840000       78 
Pt      11.77260000      13.73470000       9.81050000       78 
Pt      13.73470000      11.77260000       9.81050000       78 
Pt      13.73470000      13.73470000       7.84840000       78 
Pt      11.77260000      11.77260000      11.77260000       78 
Pt      11.77260000      13.73470000      13.73470000       78 
Pt      13.73470000      11.77260000      13.73470000       78 
Pt      13.73470000      13.73470000      11.77260000       78 
Pt      11.77260000      11.77260000      15.69680000       78 
Pt      11.77260000      15.69680000       3.92420000       78 
Pt      11.77260000      15.69680000       7.84840000       78 
Pt      11.77260000      15.69680000      11.77260000       78 
Pt      15.69680000       3.92420000       3.92420000       78 
Pt      15.69680000       5.88630000       5.88630000       78 
Pt      15.69680000       3.92420000       7.84840000       78 
Pt      15.69680000       5.88630000       9.81050000       78 
Pt      15.69680000       3.92420000      11.77260000       78 
Pt      15.69680000       7.84840000       3.92420000       78 
Pt      15.69680000       9.81050000       5.88630000       78 
Pt      15.69680000       7.84840000       7.84840000       78 
Pt      15.69680000       9.81050000       9.81050000       78 
Pt      15.69680000       7.84840000      11.77260000       78 
Pt      15.69680000      11.77260000       3.92420000       78 
Pt      15.69680000      11.77260000       7.84840000       78 
Pt      15.69680000      11.77260000      11.77260000       78 
5_3_8_5 24
6_4_10_6 24
7_3_10_3 24
7_4_14_5 12
8_3_12_5 24
8_5_12_8 6
11_4_15_6 48
12_5_18_8 24
12_6_15_9 8
12_6_20_11 12
12_6_24_10 24
12_6_24_12 19
