489
Lattice="31.3936 0.0 0.0 0.0 31.3936 0.0 0.0 0.0 31.3936" Properties=species:S:1:pos:R:3:Z:I:1 pbc="F F F"
Pt       1.96210000      13.73470000      15.69680000       78 
Pt       1.96210000      15.69680000      13.73470000       78 
Pt       0.00000000      15.69680000      15.69680000       78 
Pt       1.96210000      15.69680000      17.65890000       78 
Pt       1.96210000      17.65890000      15.69680000       78 
Pt       5.88630000       9.81050000      15.69680000       78 
Pt       3.92420000      13.73470000      13.73470000       78 
Pt       5.88630000      11.77260000      13.73470000       78 
Pt       5.88630000      13.73470000      11.77260000       78 
Pt       3.92420000      11.77260000      15.69680000       78 
Pt       3.92420000      13.73470000      17.65890000       78 
Pt       5.88630000      11.77260000      17.65890000       78 
Pt       5.88630000      13.73470000      15.69680000       78 
Pt       5.88630000      13.73470000      19.62100000       78 
Pt       5.88630000      15.69680000       9.81050000       78 
Pt       3.92420000      15.69680000      11.77260000       78 
Pt       3.92420000      17.65890000      13.73470000       78 
Pt       5.88630000      15.69680000      13.73470000       78 
Pt       5.88630000      17.65890000      11.77260000       78 
Pt       3.92420000      15.69680000      15.69680000       78 
Pt       3.92420000      17.65890000      17.65890000       78 
Pt       5.88630000      15.69680000      17.65890000       78 
Pt       5.88630000      17.65890000      15.69680000       78 
Pt       3.92420000      15.69680000      19.62100000       78 
Pt       5.88630000      15.69680000      21.58310000       78 
Pt       5.88630000      17.65890000      19.62100000       78 
Pt       5.88630000      19.62100000      13.73470000       78 
Pt       3.92420000      19.62100000      15.69680000       78 
Pt       5.88630000      19.62100000      17.65890000       78 
Pt       5.88630000      21.58310000      15.69680000       78 
Pt       9.81050000       5.88630000      15.69680000       78 
Pt       7.84840000       9.81050000      13.73470000       78 
Pt       9.81050000       7.84840000      13.73470000       78 
Pt       9.81050000       9.81050000      11.77260000       78 
Pt       7.84840000       7.84840000      15.69680000       78 
Pt       7.84840000       9.81050000      17.65890000       78 
Pt       9.81050000       7.84840000      17.65890000       78 
Pt       9.81050000       9.81050000      15.69680000       78 
Pt       9.81050000       9.81050000      19.62100000       78 
Pt       7.84840000      13.73470000       9.81050000       78 
Pt       9.81050000      11.77260000       9.81050000       78 
Pt       9.81050000      13.73470000       7.84840000       78 
Pt       7.84840000      11.77260000      11.77260000       78 
Pt       7.84840000      13.73470000      13.73470000       78 
Pt       9.81050000      11.77260000      13.73470000       78 
Pt       9.81050000      13.73470000      11.77260000       78 
Pt       7.84840000      11.77260000      15.69680000       78 
Pt       7.84840000      13.73470000      17.65890000       78 
Pt       9.81050000      11.77260000      17.65890000       78 
Pt       9.81050000      13.73470000      15.69680000       78 
Pt       7.84840000      11.77260000      19.62100000       78 
Pt       7.84840000      13.73470000      21.58310000       78 
Pt       9.81050000      11.77260000      21.58310000       78 
Pt       9.81050000      13.73470000      19.62100000       78 
Pt       9.81050000      13.73470000      23.54520000       78 
Pt       9.81050000      15.69680000       5.88630000       78 
Pt       7.84840000      15.69680000       7.84840000       78 
Pt       7.84840000      17.65890000       9.81050000       78 
Pt       9.81050000      15.69680000       9.81050000       78 
Pt       9.81050000      17.65890000       7.84840000       78 
Pt       7.84840000      15.69680000      11.77260000       78 
Pt       7.84840000      17.65890000      13.73470000       78 
Pt       9.81050000      15.69680000      13.73470000       78 
Pt       9.81050000      17.65890000      11.77260000       78 
Pt       7.84840000      15.69680000      15.69680000       78 
Pt       7.84840000      17.65890000      17.65890000       78 
Pt       9.81050000      15.69680000      17.65890000       78 
Pt       9.81050000      17.65890000      15.69680000       78 
Pt       7.84840000      15.69680000      19.62100000       78 
Pt       7.84840000      17.65890000      21.58310000       78 
Pt       9.81050000      15.69680000      21.58310000       78 
Pt       9.81050000      17.65890000      19.62100000       78 
Pt       7.84840000      15.69680000      23.54520000       78 
Pt       9.81050000      15.69680000      25.50730000       78 
Pt       9.81050000      17.65890000      23.54520000       78 
Pt       9.81050000      19.62100000       9.81050000       78 
Pt       7.84840000      19.62100000      11.77260000       78 
Pt       7.84840000      21.58310000      13.73470000       78 
Pt       9.81050000      19.62100000      13.73470000       78 
Pt       9.81050000      21.58310000      11.77260000       78 
Pt       7.84840000      19.62100000      15.69680000       78 
Pt       7.84840000      21.58310000      17.65890000       78 
Pt       9.81050000      19.62100000      17.65890000       78 
Pt       9.81050000      21.58310000      15.69680000       78 
Pt       7.84840000      19.62100000      19.62100000       78 
Pt       9.81050000      19.62100000      21.58310000       78 
Pt       9.81050000      21.58310000      19.62100000       78 
Pt       9.81050000      23.54520000      13.73470000       78 
Pt       7.84840000      23.54520000      15.69680000       78 
Pt       9.81050000      23.54520000      17.65890000       78 
Pt       9.81050000      25.50730000      15.69680000       78 
Pt      13.73470000       1.96210000      15.69680000       78 
Pt      11.77260000       5.88630000      13.73470000       78 
Pt      13.73470000       3.92420000      13.73470000       78 
Pt      13.73470000       5.88630000      11.77260000       78 
Pt      11.77260000       3.92420000      15.69680000       78 
Pt      11.77260000       5.88630000      17.65890000       78 
Pt      13.73470000       3.92420000      17.65890000       78 
Pt      13.73470000       5.88630000      15.69680000       78 
Pt      13.73470000       5.88630000      19.62100000       78 
Pt      11.77260000       9.81050000       9.81050000       78 
Pt      13.73470000       7.84840000       9.81050000       78 
Pt      13.73470000       9.81050000       7.84840000       78 
Pt      11.77260000       7.84840000      11.77260000       78 
Pt      11.77260000       9.81050000      13.73470000       78 
Pt      13.73470000       7.84840000      13.73470000       78 
Pt      13.73470000       9.81050000      11.77260000       78 
Pt      11.77260000       7.84840000      15.69680000       78 
Pt      11.77260000       9.81050000      17.65890000       78 
Pt      13.73470000       7.84840000      17.65890000       78 
Pt      13.73470000       9.81050000      15.69680000       78 
Pt      11.77260000       7.84840000      19.62100000       78 
Pt      11.77260000       9.81050000      21.58310000       78 
Pt      13.73470000       7.84840000      21.58310000       78 
Pt      13.73470000       9.81050000      19.62100000       78 
Pt      13.73470000       9.81050000      23.54520000       78 
Pt      11.77260000      13.73470000       5.88630000       78 
Pt      13.73470000      11.77260000       5.88630000       78 
Pt      13.73470000      13.73470000       3.92420000       78 
Pt      11.77260000      11.77260000       7.84840000       78 
Pt      11.77260000      13.73470000       9.81050000       78 
Pt      13.73470000      11.77260000       9.81050000       78 
Pt      13.73470000      13.73470000       7.84840000       78 
Pt      11.77260000      11.77260000      11.77260000       78 
Pt      11.77260000      13.73470000      13.73470000       78 
Pt      13.73470000      11.77260000      13.73470000       78 
Pt      13.73470000      13.73470000      11.77260000       78 
Pt      11.77260000      11.77260000      15.69680000       78 
Pt      11.77260000      13.73470000      17.65890000       78 
Pt      13.73470000      11.77260000      17.65890000       78 
Pt      13.73470000      13.73470000      15.69680000       78 
Pt      11.77260000      11.77260000      19.62100000       78 
Pt      11.77260000      13.73470000      21.58310000       78 
Pt      13.73470000      11.77260000      21.58310000       78 
Pt      13.73470000      13.73470000      19.62100000       78 
Pt      11.77260000      11.77260000      23.54520000       78 
Pt      11.77260000      13.73470000      25.50730000       78 
Pt      13.73470000      11.77260000      25.50730000       78 
Pt      13.73470000      13.73470000      23.54520000       78 
Pt      13.73470000      13.73470000      27.46940000       78 
Pt      13.73470000      15.69680000       1.96210000       78 
Pt      11.77260000      15.69680000       3.92420000       78 
Pt      11.77260000      17.65890000       5.88630000       78 
Pt      13.73470000      15.69680000       5.88630000       78 
Pt      13.73470000      17.65890000       3.92420000       78 
Pt      11.77260000      15.69680000       7.84840000       78 
Pt      11.77260000      17.65890000       9.81050000       78 
Pt      13.73470000      15.69680000       9.81050000       78 
Pt      13.73470000      17.65890000       7.84840000       78 
Pt      11.77260000      15.69680000      11.77260000       78 
Pt      11.77260000      17.65890000      13.73470000       78 
Pt      13.73470000      15.69680000      13.73470000       78 
Pt      13.73470000      17.65890000      11.77260000       78 
Pt      11.77260000      15.69680000      15.69680000       78 
Pt      11.77260000      17.65890000      17.65890000       78 
Pt      13.73470000      15.69680000      17.65890000       78 
Pt      13.73470000      17.65890000      15.69680000       78 
Pt      11.77260000      15.69680000      19.62100000       78 
Pt      11.77260000      17.65890000      21.58310000       78 
Pt      13.73470000      15.69680000      21.58310000       78 
Pt      13.73470000      17.65890000      19.62100000       78 
Pt      11.77260000      15.69680000      23.54520000       78 
Pt      11.77260000      17.65890000      25.50730000       78 
Pt      13.73470000      15.69680000      25.50730000       78 
Pt      13.73470000      17.65890000      23.54520000       78 
Pt      11.77260000      15.69680000      27.46940000       78 
Pt      13.73470000      15.69680000      29.43150000       78 
Pt      13.73470000      17.65890000      27.46940000       78 
Pt      13.73470000      19.62100000       5.88630000       78 
Pt      11.77260000      19.62100000       7.84840000       78 
Pt      11.77260000      21.58310000       9.81050000       78 
Pt      13.73470000      19.62100000       9.81050000       78 
Pt      13.73470000      21.58310000       7.84840000       78 
Pt      11.77260000      19.62100000      11.77260000       78 
Pt      11.77260000      21.58310000      13.73470000       78 
Pt      13.73470000      19.62100000      13.73470000       78 
Pt      13.73470000      21.58310000      11.77260000       78 
Pt      11.77260000      19.62100000      15.69680000       78 
Pt      11.77260000      21.58310000      17.65890000       78 
Pt      13.73470000      19.62100000      17.65890000       78 
Pt      13.73470000      21.58310000      15.69680000       78 
Pt      11.77260000      19.62100000      19.62100000       78 
Pt      11.77260000      21.58310000      21.58310000       78 
Pt      13.73470000      19.62100000      21.58310000       78 
Pt      13.73470000      21.58310000      19.62100000       78 
Pt      11.77260000      19.62100000      23.54520000       78 
Pt      13.73470000      19.62100000      25.50730000       78 
Pt      13.73470000      21.58310000      23.54520000       78 
Pt      13.73470000      23.54520000       9.81050000       78 
Pt      11.77260000      23.54520000      11.77260000       78 
Pt      11.77260000      25.50730000      13.73470000       78 
Pt      13.73470000      23.54520000      13.73470000       78 
Pt      13.73470000      25.50730000      11.77260000       78 
Pt      11.77260000      23.54520000      15.69680000       78 
Pt      11.77260000      25.50730000      17.65890000       78 
Pt      13.73470000      23.54520000      17.65890000       78 
Pt      13.73470000      25.50730000      15.69680000       78 
Pt      11.77260000      23.54520000      19.62100000       78 
Pt      13.73470000      23.54520000      21.58310000       78 
Pt      13.73470000      25.50730000      19.62100000       78 
Pt      13.73470000      27.46940000      13.73470000       78 
Pt      11.77260000      27.46940000      15.69680000       78 
Pt      13.73470000      27.46940000      17.65890000       78 
Pt      13.73470000      29.43150000      15.69680000       78 
Pt      15.69680000       1.96210000      13.73470000       78 
Pt      15.69680000       0.00000000      15.69680000       78 
Pt      15.69680000       1.96210000      17.65890000       78 
Pt      17.65890000       1.96210000      15.69680000       78 
Pt      15.69680000       5.88630000       9.81050000       78 
Pt      15.69680000       3.92420000      11.77260000       78 
Pt      15.69680000       5.88630000      13.73470000       78 
Pt      17.65890000       3.92420000      13.73470000       78 
Pt      17.65890000       5.88630000      11.77260000       78 
Pt      15.69680000       3.92420000      15.69680000       78 
Pt      15.69680000       5.88630000      17.65890000       78 
Pt      17.65890000       3.92420000      17.65890000       78 
Pt      17.65890000       5.88630000      15.69680000       78 
Pt      15.69680000       3.92420000      19.62100000       78 
Pt      15.69680000       5.88630000      21.58310000       78 
Pt      17.65890000       5.88630000      19.62100000       78 
Pt      15.69680000       9.81050000       5.88630000       78 
Pt      15.69680000       7.84840000       7.84840000       78 
Pt      15.69680000       9.81050000       9.81050000       78 
Pt      17.65890000       7.84840000       9.81050000       78 
Pt      17.65890000       9.81050000       7.84840000       78 
Pt      15.69680000       7.84840000      11.77260000       78 
Pt      15.69680000       9.81050000      13.73470000       78 
Pt      17.65890000       7.84840000      13.73470000       78 
Pt      17.65890000       9.81050000      11.77260000       78 
Pt      15.69680000       7.84840000      15.69680000       78 
Pt      15.69680000       9.81050000      17.65890000       78 
Pt      17.65890000       7.84840000      17.65890000       78 
Pt      17.65890000       9.81050000      15.69680000       78 
Pt      15.69680000       7.84840000      19.62100000       78 
Pt      15.69680000       9.81050000      21.58310000       78 
Pt      17.65890000       7.84840000      21.58310000       78 
Pt      17.65890000       9.81050000      19.62100000       78 
Pt      15.69680000       7.84840000      23.54520000       78 
Pt      15.69680000       9.81050000      25.50730000       78 
Pt      17.65890000       9.81050000      23.54520000       78 
Pt      15.69680000      13.73470000       1.96210000       78 
Pt      15.69680000      11.77260000       3.92420000       78 
Pt      15.69680000      13.73470000       5.88630000       78 
Pt      17.65890000      11.77260000       5.88630000       78 
Pt      17.65890000      13.73470000       3.92420000       78 
Pt      15.69680000      11.77260000       7.84840000       78 
Pt      15.69680000      13.73470000       9.81050000       78 
Pt      17.65890000      11.77260000       9.81050000       78 
Pt      17.65890000      13.73470000       7.84840000       78 
Pt      15.69680000      11.77260000      11.77260000       78 
Pt      15.69680000      13.73470000      13.73470000       78 
Pt      17.65890000      11.77260000      13.73470000       78 
Pt      17.65890000      13.73470000      11.77260000       78 
Pt      15.69680000      11.77260000      15.69680000       78 
Pt      15.69680000      13.73470000      17.65890000       78 
Pt      17.65890000      11.77260000      17.65890000       78 
Pt      17.65890000      13.73470000      15.69680000       78 
Pt      15.69680000      11.77260000      19.62100000       78 
Pt      15.69680000      13.73470000      21.58310000       78 
Pt      17.65890000      11.77260000      21.58310000       78 
Pt      17.65890000      13.73470000      19.62100000       78 
Pt      15.69680000      11.77260000      23.54520000       78 
Pt      15.69680000      13.73470000      25.50730000       78 
Pt      17.65890000      11.77260000      25.50730000       78 
Pt      17.65890000      13.73470000      23.54520000       78 
Pt      15.69680000      11.77260000      27.46940000       78 
Pt      15.69680000      13.73470000      29.43150000       78 
Pt      17.65890000      13.73470000      27.46940000       78 
Pt      15.69680000      15.69680000       0.00000000       78 
Pt      15.69680000      17.65890000       1.96210000       78 
Pt      17.65890000      15.69680000       1.96210000       78 
Pt      15.69680000      15.69680000       3.92420000       78 
Pt      15.69680000      17.65890000       5.88630000       78 
Pt      17.65890000      15.69680000       5.88630000       78 
Pt      17.65890000      17.65890000       3.92420000       78 
Pt      15.69680000      15.69680000       7.84840000       78 
Pt      15.69680000      17.65890000       9.81050000       78 
Pt      17.65890000      15.69680000       9.81050000       78 
Pt      17.65890000      17.65890000       7.84840000       78 
Pt      15.69680000      15.69680000      11.77260000       78 
Pt      15.69680000      17.65890000      13.73470000       78 
Pt      17.65890000      15.69680000      13.73470000       78 
Pt      17.65890000      17.65890000      11.77260000       78 
Pt      15.69680000      15.69680000      15.69680000       78 
Pt      15.69680000      17.65890000      17.65890000       78 
Pt      17.65890000      15.69680000      17.65890000       78 
Pt      17.65890000      17.65890000      15.69680000       78 
Pt      15.69680000      15.69680000      19.62100000       78 
Pt      15.69680000      17.65890000      21.58310000       78 
Pt      17.65890000      15.69680000      21.58310000       78 
Pt      17.65890000      17.65890000      19.62100000       78 
Pt      15.69680000      15.69680000      23.54520000       78 
Pt      15.69680000      17.65890000      25.50730000       78 
Pt      17.65890000      15.69680000      25.50730000       78 
Pt      17.65890000      17.65890000      23.54520000       78 
Pt      15.69680000      15.69680000      27.46940000       78 
Pt      15.69680000      17.65890000      29.43150000       78 
Pt      17.65890000      15.69680000      29.43150000       78 
Pt      17.65890000      17.65890000      27.46940000       78 
Pt      15.69680000      15.69680000      31.39360000       78 
Pt      15.69680000      19.62100000       3.92420000       78 
Pt      15.69680000      21.58310000       5.88630000       78 
Pt      17.65890000      19.62100000       5.88630000       78 
Pt      15.69680000      19.62100000       7.84840000       78 
Pt      15.69680000      21.58310000       9.81050000       78 
Pt      17.65890000      19.62100000       9.81050000       78 
Pt      17.65890000      21.58310000       7.84840000       78 
Pt      15.69680000      19.62100000      11.77260000       78 
Pt      15.69680000      21.58310000      13.73470000       78 
Pt      17.65890000      19.62100000      13.73470000       78 
Pt      17.65890000      21.58310000      11.77260000       78 
Pt      15.69680000      19.62100000      15.69680000       78 
Pt      15.69680000      21.58310000      17.65890000       78 
Pt      17.65890000      19.62100000      17.65890000       78 
Pt      17.65890000      21.58310000      15.69680000       78 
Pt      15.69680000      19.62100000      19.62100000       78 
Pt      15.69680000      21.58310000      21.58310000       78 
Pt      17.65890000      19.62100000      21.58310000       78 
Pt      17.65890000      21.58310000      19.62100000       78 
Pt      15.69680000      19.62100000      23.54520000       78 
Pt      15.69680000      21.58310000      25.50730000       78 
Pt      17.65890000      19.62100000      25.50730000       78 
Pt      17.65890000      21.58310000      23.54520000       78 
Pt      15.69680000      19.62100000      27.46940000       78 
Pt      15.69680000      23.54520000       7.84840000       78 
Pt      15.69680000      25.50730000       9.81050000       78 
Pt      17.65890000      23.54520000       9.81050000       78 
Pt      15.69680000      23.54520000      11.77260000       78 
Pt      15.69680000      25.50730000      13.73470000       78 
Pt      17.65890000      23.54520000      13.73470000       78 
Pt      17.65890000      25.50730000      11.77260000       78 
Pt      15.69680000      23.54520000      15.69680000       78 
Pt      15.69680000      25.50730000      17.65890000       78 
Pt      17.65890000      23.54520000      17.65890000       78 
Pt      17.65890000      25.50730000      15.69680000       78 
Pt      15.69680000      23.54520000      19.62100000       78 
Pt      15.69680000      25.50730000      21.58310000       78 
Pt      17.65890000      23.54520000      21.58310000       78 
Pt      17.65890000      25.50730000      19.62100000       78 
Pt      15.69680000      23.54520000      23.54520000       78 
Pt      15.69680000      27.46940000      11.77260000       78 
Pt      15.69680000      29.43150000      13.73470000       78 
Pt      17.65890000      27.46940000      13.73470000       78 
Pt      15.69680000      27.46940000      15.69680000       78 
Pt      15.69680000      29.43150000      17.65890000       78 
Pt      17.65890000      27.46940000      17.65890000       78 
Pt      17.65890000      29.43150000      15.69680000       78 
Pt      15.69680000      27.46940000      19.62100000       78 
Pt      15.69680000      31.39360000      15.69680000       78 
Pt      19.62100000       5.88630000      13.73470000       78 
Pt      19.62100000       3.92420000      15.69680000       78 
Pt      19.62100000       5.88630000      17.65890000       78 
Pt      21.58310000       5.88630000      15.69680000       78 
Pt      19.62100000       9.81050000       9.81050000       78 
Pt      19.62100000       7.84840000      11.77260000       78 
Pt      19.62100000       9.81050000      13.73470000       78 
Pt      21.58310000       7.84840000      13.73470000       78 
Pt      21.58310000       9.81050000      11.77260000       78 
Pt      19.62100000       7.84840000      15.69680000       78 
Pt      19.62100000       9.81050000      17.65890000       78 
Pt      21.58310000       7.84840000      17.65890000       78 
Pt      21.58310000       9.81050000      15.69680000       78 
Pt      19.62100000       7.84840000      19.62100000       78 
Pt      19.62100000       9.81050000      21.58310000       78 
Pt      21.58310000       9.81050000      19.62100000       78 
Pt      19.62100000      13.73470000       5.88630000       78 
Pt      19.62100000      11.77260000       7.84840000       78 
Pt      19.62100000      13.73470000       9.81050000       78 
Pt      21.58310000      11.77260000       9.81050000       78 
Pt      21.58310000      13.73470000       7.84840000       78 
Pt      19.62100000      11.77260000      11.77260000       78 
Pt      19.62100000      13.73470000      13.73470000       78 
Pt      21.58310000      11.77260000      13.73470000       78 
Pt      21.58310000      13.73470000      11.77260000       78 
Pt      19.62100000      11.77260000      15.69680000       78 
Pt      19.62100000      13.73470000      17.65890000       78 
Pt      21.58310000      11.77260000      17.65890000       78 
Pt      21.58310000      13.73470000      15.69680000       78 
Pt      19.62100000      11.77260000      19.62100000       78 
Pt      19.62100000      13.73470000      21.58310000       78 
Pt      21.58310000      11.77260000      21.58310000       78 
Pt      21.58310000      13.73470000      19.62100000       78 
Pt      19.62100000      11.77260000      23.54520000       78 
Pt      19.62100000      13.73470000      25.50730000       78 
Pt      21.58310000      13.73470000      23.54520000       78 
Pt      19.62100000      15.69680000       3.92420000       78 
Pt      19.62100000      17.65890000       5.88630000       78 
Pt      21.58310000      15.69680000       5.88630000       78 
Pt      19.62100000      15.69680000       7.84840000       78 
Pt      19.62100000      17.65890000       9.81050000       78 
Pt      21.58310000      15.69680000       9.81050000       78 
Pt      21.58310000      17.65890000       7.84840000       78 
Pt      19.62100000      15.69680000      11.77260000       78 
Pt      19.62100000      17.65890000      13.73470000       78 
Pt      21.58310000      15.69680000      13.73470000       78 
Pt      21.58310000      17.65890000      11.77260000       78 
Pt      19.62100000      15.69680000      15.69680000       78 
Pt      19.62100000      17.65890000      17.65890000       78 
Pt      21.58310000      15.69680000      17.65890000       78 
Pt      21.58310000      17.65890000      15.69680000       78 
Pt      19.62100000      15.69680000      19.62100000       78 
Pt      19.62100000      17.65890000      21.58310000       78 
Pt      21.58310000      15.69680000      21.58310000       78 
Pt      21.58310000      17.65890000      19.62100000       78 
Pt      19.62100000      15.69680000      23.54520000       78 
Pt      19.62100000      17.65890000      25.50730000       78 
Pt      21.58310000      15.69680000      25.50730000       78 
Pt      21.58310000      17.65890000      23.54520000       78 
Pt      19.62100000      15.69680000      27.46940000       78 
Pt      19.62100000      19.62100000       7.84840000       78 
Pt      19.62100000      21.58310000       9.81050000       78 
Pt      21.58310000      19.62100000       9.81050000       78 
Pt      19.62100000      19.62100000      11.77260000       78 
Pt      19.62100000      21.58310000      13.73470000       78 
Pt      21.58310000      19.62100000      13.73470000       78 
Pt      21.58310000      21.58310000      11.77260000       78 
Pt      19.62100000      19.62100000      15.69680000       78 
Pt      19.62100000      21.58310000      17.65890000       78 
Pt      21.58310000      19.62100000      17.65890000       78 
Pt      21.58310000      21.58310000      15.69680000       78 
Pt      19.62100000      19.62100000      19.62100000       78 
Pt      19.62100000      21.58310000      21.58310000       78 
Pt      21.58310000      19.62100000      21.58310000       78 
Pt      21.58310000      21.58310000      19.62100000       78 
Pt      19.62100000      19.62100000      23.54520000       78 
Pt      19.62100000      23.54520000      11.77260000       78 
Pt      19.62100000      25.50730000      13.73470000       78 
Pt      21.58310000      23.54520000      13.73470000       78 
Pt      19.62100000      23.54520000      15.69680000       78 
Pt      19.62100000      25.50730000      17.65890000       78 
Pt      21.58310000      23.54520000      17.65890000       78 
Pt      21.58310000      25.50730000      15.69680000       78 
Pt      19.62100000      23.54520000      19.62100000       78 
Pt      19.62100000      27.46940000      15.69680000       78 
Pt      23.54520000       9.81050000      13.73470000       78 
Pt      23.54520000       7.84840000      15.69680000       78 
Pt      23.54520000       9.81050000      17.65890000       78 
Pt      25.50730000       9.81050000      15.69680000       78 
Pt      23.54520000      13.73470000       9.81050000       78 
Pt      23.54520000      11.77260000      11.77260000       78 
Pt      23.54520000      13.73470000      13.73470000       78 
Pt      25.50730000      11.77260000      13.73470000       78 
Pt      25.50730000      13.73470000      11.77260000       78 
Pt      23.54520000      11.77260000      15.69680000       78 
Pt      23.54520000      13.73470000      17.65890000       78 
Pt      25.50730000      11.77260000      17.65890000       78 
Pt      25.50730000      13.73470000      15.69680000       78 
Pt      23.54520000      11.77260000      19.62100000       78 
Pt      23.54520000      13.73470000      21.58310000       78 
Pt      25.50730000      13.73470000      19.62100000       78 
Pt      23.54520000      15.69680000       7.84840000       78 
Pt      23.54520000      17.65890000       9.81050000       78 
Pt      25.50730000      15.69680000       9.81050000       78 
Pt      23.54520000      15.69680000      11.77260000       78 
Pt      23.54520000      17.65890000      13.73470000       78 
Pt      25.50730000      15.69680000      13.73470000       78 
Pt      25.50730000      17.65890000      11.77260000       78 
Pt      23.54520000      15.69680000      15.69680000       78 
Pt      23.54520000      17.65890000      17.65890000       78 
Pt      25.50730000      15.69680000      17.65890000       78 
Pt      25.50730000      17.65890000      15.69680000       78 
Pt      23.54520000      15.69680000      19.62100000       78 
Pt      23.54520000      17.65890000      21.58310000       78 
Pt      25.50730000      15.69680000      21.58310000       78 
Pt      25.50730000      17.65890000      19.62100000       78 
Pt      23.54520000      15.69680000      23.54520000       78 
Pt      23.54520000      19.62100000      11.77260000       78 
Pt      23.54520000      21.58310000      13.73470000       78 
Pt      25.50730000      19.62100000      13.73470000       78 
Pt      23.54520000      19.62100000      15.69680000       78 
Pt      23.54520000      21.58310000      17.65890000       78 
Pt      25.50730000      19.62100000      17.65890000       78 
Pt      25.50730000      21.58310000      15.69680000       78 
Pt      23.54520000      19.62100000      19.62100000       78 
Pt      23.54520000      23.54520000      15.69680000       78 
Pt      27.46940000      13.73470000      13.73470000       78 
Pt      27.46940000      11.77260000      15.69680000       78 
Pt      27.46940000      13.73470000      17.65890000       78 
Pt      29.43150000      13.73470000      15.69680000       78 
Pt      27.46940000      15.69680000      11.77260000       78 
Pt      27.46940000      17.65890000      13.73470000       78 
Pt      29.43150000      15.69680000      13.73470000       78 
Pt      27.46940000      15.69680000      15.69680000       78 
Pt      27.46940000      17.65890000      17.65890000       78 
Pt      29.43150000      15.69680000      17.65890000       78 
Pt      29.43150000      17.65890000      15.69680000       78 
Pt      27.46940000      15.69680000      19.62100000       78 
Pt      27.46940000      19.62100000      15.69680000       78 
Pt      31.39360000      15.69680000      15.69680000       78 
4_1_4_4 6
7_2_8_4 24
7_2_10_7 60
9_3_13_5 24
9_3_14_7 96
9_3_15_9 48
12_6_12_4 6
12_6_18_7 60
12_6_21_9 80
12_6_24_12 85
