587
Lattice="23.5452 0.0 0.0 0.0 23.5452 0.0 0.0 0.0 23.5452" Properties=species:S:1:pos:R:3:Z:I:1 pbc="F F F"
Pt       1.96210000       5.88630000       7.84840000       78 
Pt       1.96210000       5.88630000      11.77260000       78 
Pt       1.96210000       5.88630000      15.69680000       78 
Pt       1.96210000       7.84840000       5.88630000       78 
Pt       0.00000000       7.84840000       7.84840000       78 
Pt       0.00000000       9.81050000       9.81050000       78 
Pt       1.96210000       7.84840000       9.81050000       78 
Pt       1.96210000       9.81050000       7.84840000       78 
Pt       0.00000000       7.84840000      11.77260000       78 
Pt       0.00000000       9.81050000      13.73470000       78 
Pt       1.96210000       7.84840000      13.73470000       78 
Pt       1.96210000       9.81050000      11.77260000       78 
Pt       0.00000000       7.84840000      15.69680000       78 
Pt       1.96210000       7.84840000      17.65890000       78 
Pt       1.96210000       9.81050000      15.69680000       78 
Pt       1.96210000      11.77260000       5.88630000       78 
Pt       0.00000000      11.77260000       7.84840000       78 
Pt       0.00000000      13.73470000       9.81050000       78 
Pt       1.96210000      11.77260000       9.81050000       78 
Pt       1.96210000      13.73470000       7.84840000       78 
Pt       0.00000000      11.77260000      11.77260000       78 
Pt       0.00000000      13.73470000      13.73470000       78 
Pt       1.96210000      11.77260000      13.73470000       78 
Pt       1.96210000      13.73470000      11.77260000       78 
Pt       0.00000000      11.77260000      15.69680000       78 
Pt       1.96210000      11.77260000      17.65890000       78 
Pt       1.96210000      13.73470000      15.69680000       78 
Pt       1.96210000      15.69680000       5.88630000       78 
Pt       0.00000000      15.69680000       7.84840000       78 
Pt       1.96210000      15.69680000       9.81050000       78 
Pt       1.96210000      17.65890000       7.84840000       78 
Pt       0.00000000      15.69680000      11.77260000       78 
Pt       1.96210000      15.69680000      13.73470000       78 
Pt       1.96210000      17.65890000      11.77260000       78 
Pt       0.00000000      15.69680000      15.69680000       78 
Pt       1.96210000      15.69680000      17.65890000       78 
Pt       1.96210000      17.65890000      15.69680000       78 
Pt       5.88630000       1.96210000       7.84840000       78 
Pt       5.88630000       1.96210000      11.77260000       78 
Pt       5.88630000       1.96210000      15.69680000       78 
Pt       3.92420000       3.92420000       3.92420000       78 
Pt       3.92420000       5.88630000       5.88630000       78 
Pt       5.88630000       3.92420000       5.88630000       78 
Pt       5.88630000       5.88630000       3.92420000       78 
Pt       3.92420000       3.92420000       7.84840000       78 
Pt       3.92420000       5.88630000       9.81050000       78 
Pt       5.88630000       3.92420000       9.81050000       78 
Pt       5.88630000       5.88630000       7.84840000       78 
Pt       3.92420000       3.92420000      11.77260000       78 
Pt       3.92420000       5.88630000      13.73470000       78 
Pt       5.88630000       3.92420000      13.73470000       78 
Pt       5.88630000       5.88630000      11.77260000       78 
Pt       3.92420000       3.92420000      15.69680000       78 
Pt       3.92420000       5.88630000      17.65890000       78 
Pt       5.88630000       3.92420000      17.65890000       78 
Pt       5.88630000       5.88630000      15.69680000       78 
Pt       3.92420000       3.92420000      19.62100000       78 
Pt       5.88630000       5.88630000      19.62100000       78 
Pt       5.88630000       7.84840000       1.96210000       78 
Pt       3.92420000       7.84840000       3.92420000       78 
Pt       3.92420000       9.81050000       5.88630000       78 
Pt       5.88630000       7.84840000       5.88630000       78 
Pt       5.88630000       9.81050000       3.92420000       78 
Pt       3.92420000       7.84840000       7.84840000       78 
Pt       3.92420000       9.81050000       9.81050000       78 
Pt       5.88630000       7.84840000       9.81050000       78 
Pt       5.88630000       9.81050000       7.84840000       78 
Pt       3.92420000       7.84840000      11.77260000       78 
Pt       3.92420000       9.81050000      13.73470000       78 
Pt       5.88630000       7.84840000      13.73470000       78 
Pt       5.88630000       9.81050000      11.77260000       78 
Pt       3.92420000       7.84840000      15.69680000       78 
Pt       3.92420000       9.81050000      17.65890000       78 
Pt       5.88630000       7.84840000      17.65890000       78 
Pt       5.88630000       9.81050000      15.69680000       78 
Pt       3.92420000       7.84840000      19.62100000       78 
Pt       5.88630000       7.84840000      21.58310000       78 
Pt       5.88630000       9.81050000      19.62100000       78 
Pt       5.88630000      11.77260000       1.96210000       78 
Pt       3.92420000      11.77260000       3.92420000       78 
Pt       3.92420000      13.73470000       5.88630000       78 
Pt       5.88630000      11.77260000       5.88630000       78 
Pt       5.88630000      13.73470000       3.92420000       78 
Pt       3.92420000      11.77260000       7.84840000       78 
Pt       3.92420000      13.73470000       9.81050000       78 
Pt       5.88630000      11.77260000       9.81050000       78 
Pt       5.88630000      13.73470000       7.84840000       78 
Pt       3.92420000      11.77260000      11.77260000       78 
Pt       3.92420000      13.73470000      13.73470000       78 
Pt       5.88630000      11.77260000      13.73470000       78 
Pt       5.88630000      13.73470000      11.77260000       78 
Pt       3.92420000      11.77260000      15.69680000       78 
Pt       3.92420000      13.73470000      17.65890000       78 
Pt       5.88630000      11.77260000      17.65890000       78 
Pt       5.88630000      13.73470000      15.69680000       78 
Pt       3.92420000      11.77260000      19.62100000       78 
Pt       5.88630000      11.77260000      21.58310000       78 
Pt       5.88630000      13.73470000      19.62100000       78 
Pt       5.88630000      15.69680000       1.96210000       78 
Pt       3.92420000      15.69680000       3.92420000       78 
Pt       3.92420000      17.65890000       5.88630000       78 
Pt       5.88630000      15.69680000       5.88630000       78 
Pt       5.88630000      17.65890000       3.92420000       78 
Pt       3.92420000      15.69680000       7.84840000       78 
Pt       3.92420000      17.65890000       9.81050000       78 
Pt       5.88630000      15.69680000       9.81050000       78 
Pt       5.88630000      17.65890000       7.84840000       78 
Pt       3.92420000      15.69680000      11.77260000       78 
Pt       3.92420000      17.65890000      13.73470000       78 
Pt       5.88630000      15.69680000      13.73470000       78 
Pt       5.88630000      17.65890000      11.77260000       78 
Pt       3.92420000      15.69680000      15.69680000       78 
Pt       3.92420000      17.65890000      17.65890000       78 
Pt       5.88630000      15.69680000      17.65890000       78 
Pt       5.88630000      17.65890000      15.69680000       78 
Pt       3.92420000      15.69680000      19.62100000       78 
Pt       5.88630000      15.69680000      21.58310000       78 
Pt       5.88630000      17.65890000      19.62100000       78 
Pt       3.92420000      19.62100000       3.92420000       78 
Pt       5.88630000      19.62100000       5.88630000       78 
Pt       3.92420000      19.62100000       7.84840000       78 
Pt       5.88630000      19.62100000       9.81050000       78 
Pt       5.88630000      21.58310000       7.84840000       78 
Pt       3.92420000      19.62100000      11.77260000       78 
Pt       5.88630000      19.62100000      13.73470000       78 
Pt       5.88630000      21.58310000      11.77260000       78 
Pt       3.92420000      19.62100000      15.69680000       78 
Pt       5.88630000      19.62100000      17.65890000       78 
Pt       5.88630000      21.58310000      15.69680000       78 
Pt       3.92420000      19.62100000      19.62100000       78 
Pt       7.84840000       1.96210000       5.88630000       78 
Pt       7.84840000       0.00000000       7.84840000       78 
Pt       7.84840000       1.96210000       9.81050000       78 
Pt       9.81050000       0.00000000       9.81050000       78 
Pt       9.81050000       1.96210000       7.84840000       78 
Pt       7.84840000       0.00000000      11.77260000       78 
Pt       7.84840000       1.96210000      13.73470000       78 
Pt       9.81050000       0.00000000      13.73470000       78 
Pt       9.81050000       1.96210000      11.77260000       78 
Pt       7.84840000       0.00000000      15.69680000       78 
Pt       7.84840000       1.96210000      17.65890000       78 
Pt       9.81050000       1.96210000      15.69680000       78 
Pt       7.84840000       5.88630000       1.96210000       78 
Pt       7.84840000       3.92420000       3.92420000       78 
Pt       7.84840000       5.88630000       5.88630000       78 
Pt       9.81050000       3.92420000       5.88630000       78 
Pt       9.81050000       5.88630000       3.92420000       78 
Pt       7.84840000       3.92420000       7.84840000       78 
Pt       7.84840000       5.88630000       9.81050000       78 
Pt       9.81050000       3.92420000       9.81050000       78 
Pt       9.81050000       5.88630000       7.84840000       78 
Pt       7.84840000       3.92420000      11.77260000       78 
Pt       7.84840000       5.88630000      13.73470000       78 
Pt       9.81050000       3.92420000      13.73470000       78 
Pt       9.81050000       5.88630000      11.77260000       78 
Pt       7.84840000       3.92420000      15.69680000       78 
Pt       7.84840000       5.88630000      17.65890000       78 
Pt       9.81050000       3.92420000      17.65890000       78 
Pt       9.81050000       5.88630000      15.69680000       78 
Pt       7.84840000       3.92420000      19.62100000       78 
Pt       7.84840000       5.88630000      21.58310000       78 
Pt       9.81050000       5.88630000      19.62100000       78 
Pt       7.84840000       7.84840000       0.00000000       78 
Pt       7.84840000       9.81050000       1.96210000       78 
Pt       9.81050000       7.84840000       1.96210000       78 
Pt       9.81050000       9.81050000       0.00000000       78 
Pt       7.84840000       7.84840000       3.92420000       78 
Pt       7.84840000       9.81050000       5.88630000       78 
Pt       9.81050000       7.84840000       5.88630000       78 
Pt       9.81050000       9.81050000       3.92420000       78 
Pt       7.84840000       7.84840000       7.84840000       78 
Pt       7.84840000       9.81050000       9.81050000       78 
Pt       9.81050000       7.84840000       9.81050000       78 
Pt       9.81050000       9.81050000       7.84840000       78 
Pt       7.84840000       7.84840000      11.77260000       78 
Pt       7.84840000       9.81050000      13.73470000       78 
Pt       9.81050000       7.84840000      13.73470000       78 
Pt       9.81050000       9.81050000      11.77260000       78 
Pt       7.84840000       7.84840000      15.69680000       78 
Pt       7.84840000       9.81050000      17.65890000       78 
Pt       9.81050000       7.84840000      17.65890000       78 
Pt       9.81050000       9.81050000      15.69680000       78 
Pt       7.84840000       7.84840000      19.62100000       78 
Pt       7.84840000       9.81050000      21.58310000       78 
Pt       9.81050000       7.84840000      21.58310000       78 
Pt       9.81050000       9.81050000      19.62100000       78 
Pt       7.84840000       7.84840000      23.54520000       78 
Pt       9.81050000       9.81050000      23.54520000       78 
Pt       7.84840000      11.77260000       0.00000000       78 
Pt       7.84840000      13.73470000       1.96210000       78 
Pt       9.81050000      11.77260000       1.96210000       78 
Pt       9.81050000      13.73470000       0.00000000       78 
Pt       7.84840000      11.77260000       3.92420000       78 
Pt       7.84840000      13.73470000       5.88630000       78 
Pt       9.81050000      11.77260000       5.88630000       78 
Pt       9.81050000      13.73470000       3.92420000       78 
Pt       7.84840000      11.77260000       7.84840000       78 
Pt       7.84840000      13.73470000       9.81050000       78 
Pt       9.81050000      11.77260000       9.81050000       78 
Pt       9.81050000      13.73470000       7.84840000       78 
Pt       7.84840000      11.77260000      11.77260000       78 
Pt       7.84840000      13.73470000      13.73470000       78 
Pt       9.81050000      11.77260000      13.73470000       78 
Pt       9.81050000      13.73470000      11.77260000       78 
Pt       7.84840000      11.77260000      15.69680000       78 
Pt       7.84840000      13.73470000      17.65890000       78 
Pt       9.81050000      11.77260000      17.65890000       78 
Pt       9.81050000      13.73470000      15.69680000       78 
Pt       7.84840000      11.77260000      19.62100000       78 
Pt       7.84840000      13.73470000      21.58310000       78 
Pt       9.81050000      11.77260000      21.58310000       78 
Pt       9.81050000      13.73470000      19.62100000       78 
Pt       7.84840000      11.77260000      23.54520000       78 
Pt       9.81050000      13.73470000      23.54520000       78 
Pt       7.84840000      15.69680000       0.00000000       78 
Pt       7.84840000      17.65890000       1.96210000       78 
Pt       9.81050000      15.69680000       1.96210000       78 
Pt       7.84840000      15.69680000       3.92420000       78 
Pt       7.84840000      17.65890000       5.88630000       78 
Pt       9.81050000      15.69680000       5.88630000       78 
Pt       9.81050000      17.65890000       3.92420000       78 
Pt       7.84840000      15.69680000       7.84840000       78 
Pt       7.84840000      17.65890000       9.81050000       78 
Pt       9.81050000      15.69680000       9.81050000       78 
Pt       9.81050000      17.65890000       7.84840000       78 
Pt       7.84840000      15.69680000      11.77260000       78 
Pt       7.84840000      17.65890000      13.73470000       78 
Pt       9.81050000      15.69680000      13.73470000       78 
Pt       9.81050000      17.65890000      11.77260000       78 
Pt       7.84840000      15.69680000      15.69680000       78 
Pt       7.84840000      17.65890000      17.65890000       78 
Pt       9.81050000      15.69680000      17.65890000       78 
Pt       9.81050000      17.65890000      15.69680000       78 
Pt       7.84840000      15.69680000      19.62100000       78 
Pt       7.84840000      17.65890000      21.58310000       78 
Pt       9.81050000      15.69680000      21.58310000       78 
Pt       9.81050000      17.65890000      19.62100000       78 
Pt       7.84840000      15.69680000      23.54520000       78 
Pt       7.84840000      19.62100000       3.92420000       78 
Pt       7.84840000      21.58310000       5.88630000       78 
Pt       9.81050000      19.62100000       5.88630000       78 
Pt       7.84840000      19.62100000       7.84840000       78 
Pt       7.84840000      21.58310000       9.81050000       78 
Pt       9.81050000      19.62100000       9.81050000       78 
Pt       9.81050000      21.58310000       7.84840000       78 
Pt       7.84840000      19.62100000      11.77260000       78 
Pt       7.84840000      21.58310000      13.73470000       78 
Pt       9.81050000      19.62100000      13.73470000       78 
Pt       9.81050000      21.58310000      11.77260000       78 
Pt       7.84840000      19.62100000      15.69680000       78 
Pt       7.84840000      21.58310000      17.65890000       78 
Pt       9.81050000      19.62100000      17.65890000       78 
Pt       9.81050000      21.58310000      15.69680000       78 
Pt       7.84840000      19.62100000      19.62100000       78 
Pt       7.84840000      23.54520000       7.84840000       78 
Pt       9.81050000      23.54520000       9.81050000       78 
Pt       7.84840000      23.54520000      11.77260000       78 
Pt       9.81050000      23.54520000      13.73470000       78 
Pt       7.84840000      23.54520000      15.69680000       78 
Pt      11.77260000       1.96210000       5.88630000       78 
Pt      11.77260000       0.00000000       7.84840000       78 
Pt      11.77260000       1.96210000       9.81050000       78 
Pt      13.73470000       0.00000000       9.81050000       78 
Pt      13.73470000       1.96210000       7.84840000       78 
Pt      11.77260000       0.00000000      11.77260000       78 
Pt      11.77260000       1.96210000      13.73470000       78 
Pt      13.73470000       0.00000000      13.73470000       78 
Pt      13.73470000       1.96210000      11.77260000       78 
Pt      11.77260000       0.00000000      15.69680000       78 
Pt      11.77260000       1.96210000      17.65890000       78 
Pt      13.73470000       1.96210000      15.69680000       78 
Pt      11.77260000       5.88630000       1.96210000       78 
Pt      11.77260000       3.92420000       3.92420000       78 
Pt      11.77260000       5.88630000       5.88630000       78 
Pt      13.73470000       3.92420000       5.88630000       78 
Pt      13.73470000       5.88630000       3.92420000       78 
Pt      11.77260000       3.92420000       7.84840000       78 
Pt      11.77260000       5.88630000       9.81050000       78 
Pt      13.73470000       3.92420000       9.81050000       78 
Pt      13.73470000       5.88630000       7.84840000       78 
Pt      11.77260000       3.92420000      11.77260000       78 
Pt      11.77260000       5.88630000      13.73470000       78 
Pt      13.73470000       3.92420000      13.73470000       78 
Pt      13.73470000       5.88630000      11.77260000       78 
Pt      11.77260000       3.92420000      15.69680000       78 
Pt      11.77260000       5.88630000      17.65890000       78 
Pt      13.73470000       3.92420000      17.65890000       78 
Pt      13.73470000       5.88630000      15.69680000       78 
Pt      11.77260000       3.92420000      19.62100000       78 
Pt      11.77260000       5.88630000      21.58310000       78 
Pt      13.73470000       5.88630000      19.62100000       78 
Pt      11.77260000       7.84840000       0.00000000       78 
Pt      11.77260000       9.81050000       1.96210000       78 
Pt      13.73470000       7.84840000       1.96210000       78 
Pt      13.73470000       9.81050000       0.00000000       78 
Pt      11.77260000       7.84840000       3.92420000       78 
Pt      11.77260000       9.81050000       5.88630000       78 
Pt      13.73470000       7.84840000       5.88630000       78 
Pt      13.73470000       9.81050000       3.92420000       78 
Pt      11.77260000       7.84840000       7.84840000       78 
Pt      11.77260000       9.81050000       9.81050000       78 
Pt      13.73470000       7.84840000       9.81050000       78 
Pt      13.73470000       9.81050000       7.84840000       78 
Pt      11.77260000       7.84840000      11.77260000       78 
Pt      11.77260000       9.81050000      13.73470000       78 
Pt      13.73470000       7.84840000      13.73470000       78 
Pt      13.73470000       9.81050000      11.77260000       78 
Pt      11.77260000       7.84840000      15.69680000       78 
Pt      11.77260000       9.81050000      17.65890000       78 
Pt      13.73470000       7.84840000      17.65890000       78 
Pt      13.73470000       9.81050000      15.69680000       78 
Pt      11.77260000       7.84840000      19.62100000       78 
Pt      11.77260000       9.81050000      21.58310000       78 
Pt      13.73470000       7.84840000      21.58310000       78 
Pt      13.73470000       9.81050000      19.62100000       78 
Pt      11.77260000       7.84840000      23.54520000       78 
Pt      13.73470000       9.81050000      23.54520000       78 
Pt      11.77260000      11.77260000       0.00000000       78 
Pt      11.77260000      13.73470000       1.96210000       78 
Pt      13.73470000      11.77260000       1.96210000       78 
Pt      13.73470000      13.73470000       0.00000000       78 
Pt      11.77260000      11.77260000       3.92420000       78 
Pt      11.77260000      13.73470000       5.88630000       78 
Pt      13.73470000      11.77260000       5.88630000       78 
Pt      13.73470000      13.73470000       3.92420000       78 
Pt      11.77260000      11.77260000       7.84840000       78 
Pt      11.77260000      13.73470000       9.81050000       78 
Pt      13.73470000      11.77260000       9.81050000       78 
Pt      13.73470000      13.73470000       7.84840000       78 
Pt      11.77260000      11.77260000      11.77260000       78 
Pt      11.77260000      13.73470000      13.73470000       78 
Pt      13.73470000      11.77260000      13.73470000       78 
Pt      13.73470000      13.73470000      11.77260000       78 
Pt      11.77260000      11.77260000      15.69680000       78 
Pt      11.77260000      13.73470000      17.65890000       78 
Pt      13.73470000      11.77260000      17.65890000       78 
Pt      13.73470000      13.73470000      15.69680000       78 
Pt      11.77260000      11.77260000      19.62100000       78 
Pt      11.77260000      13.73470000      21.58310000       78 
Pt      13.73470000      11.77260000      21.58310000       78 
Pt      13.73470000      13.73470000      19.62100000       78 
Pt      11.77260000      11.77260000      23.54520000       78 
Pt      13.73470000      13.73470000      23.54520000       78 
Pt      11.77260000      15.69680000       0.00000000       78 
Pt      11.77260000      17.65890000       1.96210000       78 
Pt      13.73470000      15.69680000       1.96210000       78 
Pt      11.77260000      15.69680000       3.92420000       78 
Pt      11.77260000      17.65890000       5.88630000       78 
Pt      13.73470000      15.69680000       5.88630000       78 
Pt      13.73470000      17.65890000       3.92420000       78 
Pt      11.77260000      15.69680000       7.84840000       78 
Pt      11.77260000      17.65890000       9.81050000       78 
Pt      13.73470000      15.69680000       9.81050000       78 
Pt      13.73470000      17.65890000       7.84840000       78 
Pt      11.77260000      15.69680000      11.77260000       78 
Pt      11.77260000      17.65890000      13.73470000       78 
Pt      13.73470000      15.69680000      13.73470000       78 
Pt      13.73470000      17.65890000      11.77260000       78 
Pt      11.77260000      15.69680000      15.69680000       78 
Pt      11.77260000      17.65890000      17.65890000       78 
Pt      13.73470000      15.69680000      17.65890000       78 
Pt      13.73470000      17.65890000      15.69680000       78 
Pt      11.77260000      15.69680000      19.62100000       78 
Pt      11.77260000      17.65890000      21.58310000       78 
Pt      13.73470000      15.69680000      21.58310000       78 
Pt      13.73470000      17.65890000      19.62100000       78 
Pt      11.77260000      15.69680000      23.54520000       78 
Pt      11.77260000      19.62100000       3.92420000       78 
Pt      11.77260000      21.58310000       5.88630000       78 
Pt      13.73470000      19.62100000       5.88630000       78 
Pt      11.77260000      19.62100000       7.84840000       78 
Pt      11.77260000      21.58310000       9.81050000       78 
Pt      13.73470000      19.62100000       9.81050000       78 
Pt      13.73470000      21.58310000       7.84840000       78 
Pt      11.77260000      19.62100000      11.77260000       78 
Pt      11.77260000      21.58310000      13.73470000       78 
Pt      13.73470000      19.62100000      13.73470000       78 
Pt      13.73470000      21.58310000      11.77260000       78 
Pt      11.77260000      19.62100000      15.69680000       78 
Pt      11.77260000      21.58310000      17.65890000       78 
Pt      13.73470000      19.62100000      17.65890000       78 
Pt      13.73470000      21.58310000      15.69680000       78 
Pt      11.77260000      19.62100000      19.62100000       78 
Pt      11.77260000      23.54520000       7.84840000       78 
Pt      13.73470000      23.54520000       9.81050000       78 
Pt      11.77260000      23.54520000      11.77260000       78 
Pt      13.73470000      23.54520000      13.73470000       78 
Pt      11.77260000      23.54520000      15.69680000       78 
Pt      15.69680000       1.96210000       5.88630000       78 
Pt      15.69680000       0.00000000       7.84840000       78 
Pt      15.69680000       1.96210000       9.81050000       78 
Pt      17.65890000       1.96210000       7.84840000       78 
Pt      15.69680000       0.00000000      11.77260000       78 
Pt      15.69680000       1.96210000      13.73470000       78 
Pt      17.65890000       1.96210000      11.77260000       78 
Pt      15.69680000       0.00000000      15.69680000       78 
Pt      15.69680000       1.96210000      17.65890000       78 
Pt      17.65890000       1.96210000      15.69680000       78 
Pt      15.69680000       5.88630000       1.96210000       78 
Pt      15.69680000       3.92420000       3.92420000       78 
Pt      15.69680000       5.88630000       5.88630000       78 
Pt      17.65890000       3.92420000       5.88630000       78 
Pt      17.65890000       5.88630000       3.92420000       78 
Pt      15.69680000       3.92420000       7.84840000       78 
Pt      15.69680000       5.88630000       9.81050000       78 
Pt      17.65890000       3.92420000       9.81050000       78 
Pt      17.65890000       5.88630000       7.84840000       78 
Pt      15.69680000       3.92420000      11.77260000       78 
Pt      15.69680000       5.88630000      13.73470000       78 
Pt      17.65890000       3.92420000      13.73470000       78 
Pt      17.65890000       5.88630000      11.77260000       78 
Pt      15.69680000       3.92420000      15.69680000       78 
Pt      15.69680000       5.88630000      17.65890000       78 
Pt      17.65890000       3.92420000      17.65890000       78 
Pt      17.65890000       5.88630000      15.69680000       78 
Pt      15.69680000       3.92420000      19.62100000       78 
Pt      15.69680000       5.88630000      21.58310000       78 
Pt      17.65890000       5.88630000      19.62100000       78 
Pt      15.69680000       7.84840000       0.00000000       78 
Pt      15.69680000       9.81050000       1.96210000       78 
Pt      17.65890000       7.84840000       1.96210000       78 
Pt      15.69680000       7.84840000       3.92420000       78 
Pt      15.69680000       9.81050000       5.88630000       78 
Pt      17.65890000       7.84840000       5.88630000       78 
Pt      17.65890000       9.81050000       3.92420000       78 
Pt      15.69680000       7.84840000       7.84840000       78 
Pt      15.69680000       9.81050000       9.81050000       78 
Pt      17.65890000       7.84840000       9.81050000       78 
Pt      17.65890000       9.81050000       7.84840000       78 
Pt      15.69680000       7.84840000      11.77260000       78 
Pt      15.69680000       9.81050000      13.73470000       78 
Pt      17.65890000       7.84840000      13.73470000       78 
Pt      17.65890000       9.81050000      11.77260000       78 
Pt      15.69680000       7.84840000      15.69680000       78 
Pt      15.69680000       9.81050000      17.65890000       78 
Pt      17.65890000       7.84840000      17.65890000       78 
Pt      17.65890000       9.81050000      15.69680000       78 
Pt      15.69680000       7.84840000      19.62100000       78 
Pt      15.69680000       9.81050000      21.58310000       78 
Pt      17.65890000       7.84840000      21.58310000       78 
Pt      17.65890000       9.81050000      19.62100000       78 
Pt      15.69680000       7.84840000      23.54520000       78 
Pt      15.69680000      11.77260000       0.00000000       78 
Pt      15.69680000      13.73470000       1.96210000       78 
Pt      17.65890000      11.77260000       1.96210000       78 
Pt      15.69680000      11.77260000       3.92420000       78 
Pt      15.69680000      13.73470000       5.88630000       78 
Pt      17.65890000      11.77260000       5.88630000       78 
Pt      17.65890000      13.73470000       3.92420000       78 
Pt      15.69680000      11.77260000       7.84840000       78 
Pt      15.69680000      13.73470000       9.81050000       78 
Pt      17.65890000      11.77260000       9.81050000       78 
Pt      17.65890000      13.73470000       7.84840000       78 
Pt      15.69680000      11.77260000      11.77260000       78 
Pt      15.69680000      13.73470000      13.73470000       78 
Pt      17.65890000      11.77260000      13.73470000       78 
Pt      17.65890000      13.73470000      11.77260000       78 
Pt      15.69680000      11.77260000      15.69680000       78 
Pt      15.69680000      13.73470000      17.65890000       78 
Pt      17.65890000      11.77260000      17.65890000       78 
Pt      17.65890000      13.73470000      15.69680000       78 
Pt      15.69680000      11.77260000      19.62100000       78 
Pt      15.69680000      13.73470000      21.58310000       78 
Pt      17.65890000      11.77260000      21.58310000       78 
Pt      17.65890000      13.73470000      19.62100000       78 
Pt      15.69680000      11.77260000      23.54520000       78 
Pt      15.69680000      15.69680000       0.00000000       78 
Pt      15.69680000      17.65890000       1.96210000       78 
Pt      17.65890000      15.69680000       1.96210000       78 
Pt      15.69680000      15.69680000       3.92420000       78 
Pt      15.69680000      17.65890000       5.88630000       78 
Pt      17.65890000      15.69680000       5.88630000       78 
Pt      17.65890000      17.65890000       3.92420000       78 
Pt      15.69680000      15.69680000       7.84840000       78 
Pt      15.69680000      17.65890000       9.81050000       78 
Pt      17.65890000      15.69680000       9.81050000       78 
Pt      17.65890000      17.65890000       7.84840000       78 
Pt      15.69680000      15.69680000      11.77260000       78 
Pt      15.69680000      17.65890000      13.73470000       78 
Pt      17.65890000      15.69680000      13.73470000       78 
Pt      17.65890000      17.65890000      11.77260000       78 
Pt      15.69680000      15.69680000      15.69680000       78 
Pt      15.69680000      17.65890000      17.65890000       78 
Pt      17.65890000      15.69680000      17.65890000       78 
Pt      17.65890000      17.65890000      15.69680000       78 
Pt      15.69680000      15.69680000      19.62100000       78 
Pt      15.69680000      17.65890000      21.58310000       78 
Pt      17.65890000      15.69680000      21.58310000       78 
Pt      17.65890000      17.65890000      19.62100000       78 
Pt      15.69680000      15.69680000      23.54520000       78 
Pt      15.69680000      19.62100000       3.92420000       78 
Pt      15.69680000      21.58310000       5.88630000       78 
Pt      17.65890000      19.62100000       5.88630000       78 
Pt      15.69680000      19.62100000       7.84840000       78 
Pt      15.69680000      21.58310000       9.81050000       78 
Pt      17.65890000      19.62100000       9.81050000       78 
Pt      17.65890000      21.58310000       7.84840000       78 
Pt      15.69680000      19.62100000      11.77260000       78 
Pt      15.69680000      21.58310000      13.73470000       78 
Pt      17.65890000      19.62100000      13.73470000       78 
Pt      17.65890000      21.58310000      11.77260000       78 
Pt      15.69680000      19.62100000      15.69680000       78 
Pt      15.69680000      21.58310000      17.65890000       78 
Pt      17.65890000      19.62100000      17.65890000       78 
Pt      17.65890000      21.58310000      15.69680000       78 
Pt      15.69680000      19.62100000      19.62100000       78 
Pt      15.69680000      23.54520000       7.84840000       78 
Pt      15.69680000      23.54520000      11.77260000       78 
Pt      15.69680000      23.54520000      15.69680000       78 
Pt      19.62100000       3.92420000       3.92420000       78 
Pt      19.62100000       5.88630000       5.88630000       78 
Pt      19.62100000       3.92420000       7.84840000       78 
Pt      19.62100000       5.88630000       9.81050000       78 
Pt      21.58310000       5.88630000       7.84840000       78 
Pt      19.62100000       3.92420000      11.77260000       78 
Pt      19.62100000       5.88630000      13.73470000       78 
Pt      21.58310000       5.88630000      11.77260000       78 
Pt      19.62100000       3.92420000      15.69680000       78 
Pt      19.62100000       5.88630000      17.65890000       78 
Pt      21.58310000       5.88630000      15.69680000       78 
Pt      19.62100000       3.92420000      19.62100000       78 
Pt      19.62100000       7.84840000       3.92420000       78 
Pt      19.62100000       9.81050000       5.88630000       78 
Pt      21.58310000       7.84840000       5.88630000       78 
Pt      19.62100000       7.84840000       7.84840000       78 
Pt      19.62100000       9.81050000       9.81050000       78 
Pt      21.58310000       7.84840000       9.81050000       78 
Pt      21.58310000       9.81050000       7.84840000       78 
Pt      19.62100000       7.84840000      11.77260000       78 
Pt      19.62100000       9.81050000      13.73470000       78 
Pt      21.58310000       7.84840000      13.73470000       78 
Pt      21.58310000       9.81050000      11.77260000       78 
Pt      19.62100000       7.84840000      15.69680000       78 
Pt      19.62100000       9.81050000      17.65890000       78 
Pt      21.58310000       7.84840000      17.65890000       78 
Pt      21.58310000       9.81050000      15.69680000       78 
Pt      19.62100000       7.84840000      19.62100000       78 
Pt      19.62100000      11.77260000       3.92420000       78 
Pt      19.62100000      13.73470000       5.88630000       78 
Pt      21.58310000      11.77260000       5.88630000       78 
Pt      19.62100000      11.77260000       7.84840000       78 
Pt      19.62100000      13.73470000       9.81050000       78 
Pt      21.58310000      11.77260000       9.81050000       78 
Pt      21.58310000      13.73470000       7.84840000       78 
Pt      19.62100000      11.77260000      11.77260000       78 
Pt      19.62100000      13.73470000      13.73470000       78 
Pt      21.58310000      11.77260000      13.73470000       78 
Pt      21.58310000      13.73470000      11.77260000       78 
Pt      19.62100000      11.77260000      15.69680000       78 
Pt      19.62100000      13.73470000      17.65890000       78 
Pt      21.58310000      11.77260000      17.65890000       78 
Pt      21.58310000      13.73470000      15.69680000       78 
Pt      19.62100000      11.77260000      19.62100000       78 
Pt      19.62100000      15.69680000       3.92420000       78 
Pt      19.62100000      17.65890000       5.88630000       78 
Pt      21.58310000      15.69680000       5.88630000       78 
Pt      19.62100000      15.69680000       7.84840000       78 
Pt      19.62100000      17.65890000       9.81050000       78 
Pt      21.58310000      15.69680000       9.81050000       78 
Pt      21.58310000      17.65890000       7.84840000       78 
Pt      19.62100000      15.69680000      11.77260000       78 
Pt      19.62100000      17.65890000      13.73470000       78 
Pt      21.58310000      15.69680000      13.73470000       78 
Pt      21.58310000      17.65890000      11.77260000       78 
Pt      19.62100000      15.69680000      15.69680000       78 
Pt      19.62100000      17.65890000      17.65890000       78 
Pt      21.58310000      15.69680000      17.65890000       78 
Pt      21.58310000      17.65890000      15.69680000       78 
Pt      19.62100000      15.69680000      19.62100000       78 
Pt      19.62100000      19.62100000       3.92420000       78 
Pt      19.62100000      19.62100000       7.84840000       78 
Pt      19.62100000      19.62100000      11.77260000       78 
Pt      19.62100000      19.62100000      15.69680000       78 
Pt      19.62100000      19.62100000      19.62100000       78 
Pt      23.54520000       7.84840000       7.84840000       78 
Pt      23.54520000       9.81050000       9.81050000       78 
Pt      23.54520000       7.84840000      11.77260000       78 
Pt      23.54520000       9.81050000      13.73470000       78 
Pt      23.54520000       7.84840000      15.69680000       78 
Pt      23.54520000      11.77260000       7.84840000       78 
Pt      23.54520000      13.73470000       9.81050000       78 
Pt      23.54520000      11.77260000      11.77260000       78 
Pt      23.54520000      13.73470000      13.73470000       78 
Pt      23.54520000      11.77260000      15.69680000       78 
Pt      23.54520000      15.69680000       7.84840000       78 
Pt      23.54520000      15.69680000      11.77260000       78 
Pt      23.54520000      15.69680000      15.69680000       78 
3_3_9_3 8
5_3_8_5 24
6_4_10_6 24
7_3_12_5 48
7_4_12_7 24
7_4_14_6 24
7_4_14_7 12
8_3_12_5 24
8_5_12_8 6
10_3_13_5 24
11_4_15_6 48
11_4_18_7 48
12_5_18_8 24
12_6_17_10 24
12_6_20_9 24
12_6_20_11 36
12_6_24_10 24
12_6_24_11 48
12_6_24_12 93
